@<TRIPOS>MOLECULE
****
47 50 1 0 0
SMALL
USER_CHARGES


@<TRIPOS>ATOM
      1 C          -4.4240   -0.5469   -0.2018 C.2       1     ****    0.0000
      2 C          -4.6544    0.7531   -0.5386 C.2       1     ****    0.0000
      3 C          -5.4510   -1.3734    0.1328 C.ar      1     ****    0.0000
      4 C          -3.1446   -0.9983   -0.1352 C.ar      1     ****    0.0000
      5 C          -3.6498    1.8146   -0.0609 C.3       1     ****    0.0000
      6 C          -5.7181    1.1476   -1.2896 C.ar      1     ****    0.0000
      7 C          -5.3835   -2.7127   -0.0246 C.ar      1     ****    0.0000
      8 C          -6.4004   -3.5276    0.2965 C.ar      1     ****    0.0000
      9 C          -7.5493   -3.0492    0.7980 C.ar      1     ****    0.0000
     10 C          -7.6346   -1.7197    0.9563 C.ar      1     ****    0.0000
     11 C          -6.6168   -0.9078    0.6304 C.ar      1     ****    0.0000
     12 C          -2.7411   -1.9289    0.7545 C.ar      1     ****    0.0000
     13 C          -1.4732   -2.3660    0.8061 C.ar      1     ****    0.0000
     14 C          -0.5362   -1.8995   -0.0339 C.ar      1     ****    0.0000
     15 C          -0.9241   -0.9744   -0.9253 C.ar      1     ****    0.0000
     16 C          -2.1918   -0.5365   -0.9722 C.ar      1     ****    0.0000
     17 C          -6.0417    2.4436   -1.4822 C.ar      1     ****    0.0000
     18 C          -7.0957    2.7929   -2.2376 C.ar      1     ****    0.0000
     19 N          -7.8434    1.9683   -2.8354 N.ar      1     ****    0.0000
     20 C          -7.5417    0.7478   -2.7121 C.ar      1     ****    0.0000
     21 C          -6.5119    0.2973   -1.9768 C.ar      1     ****    0.0000
     22 N          -4.2070    2.6473    1.0192 N.ar      1     ****    0.0000
     23 C          -4.8153    2.1945    2.0325 C.ar      1     ****    0.0000
     24 N          -5.1696    3.1483    2.7863 N.ar      1     ****    0.0000
     25 C          -4.7537    4.2004    2.2120 C.ar      1     ****    0.0000
     26 C          -4.1212    3.9092    1.0651 C.ar      1     ****    0.0000
     27 O          -8.5859   -3.8669    1.1239 O.3       1     ****    0.0000
     28 O           0.7499   -2.3389    0.0119 O.3       1     ****    0.0000
     29 H          -2.7199    1.3904    0.3789 H         1     ****    0.0000
     30 H          -3.3094    2.4279   -0.9273 H         1     ****    0.0000
     31 H          -4.5016   -3.1963   -0.4784 H         1     ****    0.0000
     32 H          -6.3015   -4.6143    0.1322 H         1     ****    0.0000
     33 H          -8.5627   -1.2891    1.3697 H         1     ****    0.0000
     34 H          -6.7736    0.1667    0.8224 H         1     ****    0.0000
     35 H          -3.4307   -2.3345    1.5147 H         1     ****    0.0000
     36 H          -1.1863   -3.1164    1.5624 H         1     ****    0.0000
     37 H          -0.1845   -0.5756   -1.6403 H         1     ****    0.0000
     38 H          -2.4342    0.1962   -1.7617 H         1     ****    0.0000
     39 H          -5.4812    3.2729   -1.0305 H         1     ****    0.0000
     40 H          -7.3541    3.8581   -2.3688 H         1     ****    0.0000
     41 H          -8.1797    0.0369   -3.2654 H         1     ****    0.0000
     42 H          -6.3463   -0.7905   -2.0015 H         1     ****    0.0000
     43 H          -4.9943    1.1302    2.2169 H         1     ****    0.0000
     44 H          -4.9051    5.2046    2.6288 H         1     ****    0.0000
     45 H          -3.6366    4.5456    0.3189 H         1     ****    0.0000
     46 H          -9.3205   -3.3276    1.4588 H         1     ****    0.0000
     47 H           1.2648   -1.8841   -0.6742 H         1     ****    0.0000
@<TRIPOS>BOND
     1     1     2     2
     2     1     3     1
     3     1     4     1
     4     2     5     1
     5     2     6     1
     6     3     7     1
     7     3    11     2
     8     4    12     1
     9     4    16     2
    10     5    22     1
    11     5    29     1
    12     5    30     1
    13     6    17     2
    14     6    21     1
    15     7     8     2
    16     7    31     1
    17     8     9     1
    18     8    32     1
    19     9    10     2
    20     9    27     1
    21    10    11     1
    22    10    33     1
    23    11    34     1
    24    12    13     2
    25    12    35     1
    26    13    14     1
    27    13    36     1
    28    14    15     2
    29    14    28     1
    30    15    16     1
    31    15    37     1
    32    16    38     1
    33    17    18     1
    34    17    39     1
    35    18    19     2
    36    18    40     1
    37    19    20     1
    38    20    21     2
    39    20    41     1
    40    21    42     1
    41    22    23     1
    42    22    26     1
    43    23    24     2
    44    23    43     1
    45    24    25     1
    46    25    26     2
    47    25    44     1
    48    26    45     1
    49    27    46     1
    50    28    47     1
