REMARK  7 active torsions:
REMARK  status: ('A' for Active; 'I' for Inactive)
REMARK    1  A    between atoms: C_1  and  C_4 
REMARK    2  A    between atoms: C_1  and  C_3 
REMARK    3  A    between atoms: C_2  and  C_5 
REMARK    4  A    between atoms: C_2  and  C_6 
REMARK    5  A    between atoms: C_5  and  N_22 
REMARK    6  A    between atoms: C_9  and  O_27 
REMARK    7  A    between atoms: C_14  and  O_28 
ROOT
HETATM    1  C   ***     1     -10.357  47.965 333.606  1.00  0.00    -0.007 C 
HETATM    2  C   ***     1     -11.377  47.707 332.741  1.00  0.00    -0.018 C 
ENDROOT
BRANCH   1   3
HETATM    3  C   ***     1     -10.100  49.249 333.966  1.00  0.00    -0.024 A 
HETATM    4  C   ***     1     -10.273  50.270 333.100  1.00  0.00     0.015 A 
HETATM    5  C   ***     1     -10.020  51.544 333.436  1.00  0.00     0.037 A 
HETATM    6  C   ***     1      -9.581  51.871 334.661  1.00  0.00     0.065 A 
HETATM    7  C   ***     1      -9.407  50.866 335.533  1.00  0.00     0.037 A 
HETATM    8  C   ***     1      -9.657  49.592 335.194  1.00  0.00     0.015 A 
BRANCH   6   9
HETATM    9  O   ***     1      -9.327  53.164 334.998  1.00  0.00    -0.361 OA
HETATM   10  H   ***     1      -9.512  53.733 334.233  1.00  0.00     0.217 HD
ENDBRANCH   6   9
ENDBRANCH   1   3
BRANCH   1  11
HETATM   11  C   ***     1      -9.641  46.951 334.162  1.00  0.00    -0.024 A 
HETATM   12  C   ***     1      -8.368  47.109 334.582  1.00  0.00     0.015 A 
HETATM   13  C   ***     1      -7.658  46.106 335.122  1.00  0.00     0.037 A 
HETATM   14  C   ***     1      -8.183  44.881 335.277  1.00  0.00     0.065 A 
HETATM   15  C   ***     1      -9.446  44.706 334.860  1.00  0.00     0.037 A 
HETATM   16  C   ***     1     -10.151  45.710 334.317  1.00  0.00     0.015 A 
BRANCH  14  17
HETATM   17  O   ***     1      -7.471  43.858 335.820  1.00  0.00    -0.361 OA
HETATM   18  H   ***     1      -8.025  43.060 335.835  1.00  0.00     0.217 HD
ENDBRANCH  14  17
ENDBRANCH   1  11
BRANCH   2  19
HETATM   19  C   ***     1     -12.635  48.589 332.820  1.00  0.00     0.169 C 
BRANCH  19  20
HETATM   20  N   ***     1     -13.776  47.861 333.403  1.00  0.00    -0.346 N 
HETATM   21  C   ***     1     -13.717  47.160 334.456  1.00  0.00     0.209 A 
HETATM   22  N   ***     1     -14.855  46.667 334.711  1.00  0.00    -0.255 NA
HETATM   23  C   ***     1     -15.618  47.092 333.790  1.00  0.00     0.135 A 
HETATM   24  C   ***     1     -14.949  47.873 332.928  1.00  0.00     0.111 A 
ENDBRANCH  19  20
ENDBRANCH   2  19
BRANCH   2  25
HETATM   25  C   ***     1     -11.325  46.723 331.804  1.00  0.00    -0.025 A 
HETATM   26  C   ***     1     -12.391  46.355 331.062  1.00  0.00     0.031 A 
HETATM   27  C   ***     1     -12.297  45.383 330.141  1.00  0.00     0.117 A 
HETATM   28  N   ***     1     -11.231  44.758 329.877  1.00  0.00    -0.273 NA
HETATM   29  C   ***     1     -10.203  45.108 330.522  1.00  0.00     0.117 A 
HETATM   30  C   ***     1     -10.195  46.064 331.465  1.00  0.00     0.031 A 
ENDBRANCH   2  25
TORSDOF 7
